# generated using pymatgen
data_MgTiMnVZnCrFeCoCuNiSb20ClO54
_symmetry_space_group_name_H-M   'P 1'
_cell_length_a   6.63330100
_cell_length_b   9.65761000
_cell_length_c   29.39227800
_cell_angle_alpha   89.96642000
_cell_angle_beta   89.99849500
_cell_angle_gamma   89.96842500
_symmetry_Int_Tables_number   1
_chemical_formula_structural   MgTiMnVZnCrFeCoCuNiSb20ClO54
_chemical_formula_sum
'Mg1 Ti1 Mn1 V1 Zn1 Cr1 Fe1 Co1 Cu1 Ni1 Sb20 Cl1 O54'
_cell_volume   1882.92262626
_cell_formula_units_Z   1
loop_
 _symmetry_equiv_pos_site_id
 _symmetry_equiv_pos_as_xyz
  1  'x, y, z'
loop_
 _atom_site_type_symbol
 _atom_site_label
 _atom_site_symmetry_multiplicity
 _atom_site_fract_x
 _atom_site_fract_y
 _atom_site_fract_z
 _atom_site_occupancy
  Mg  Mg0  1  0.00190300  0.99240600  0.56766100  1
  Ti  Ti1  1  1.00000000  0.66768000  1.00000000  1
  Mn  Mn2  1  0.99976500  0.16537200  0.66262000  1
  V  V3  1  1.00000000  0.83232000  0.88621000  1
  Zn  Zn4  1  0.99882400  0.84148200  0.66445400  1
  Cr  Cr5  1  0.50000000  0.50000000  0.77241000  1
  Fe  Fe6  1  0.00000000  1.00000000  0.77241000  1
  Co  Co7  1  0.50000000  0.83232000  0.77241000  1
  Cu  Cu8  1  0.00228000  0.68676100  0.56019800  1
  Ni  Ni9  1  0.50203200  0.51204500  0.55424700  1
  Sb  Sb10  1  0.00000000  0.00000000  0.00000000  1
  Sb  Sb11  1  0.50000000  1.00000000  0.88621000  1
  Sb  Sb12  1  0.49983200  0.00613700  0.66375000  1
  Sb  Sb13  1  0.50000000  0.50000000  1.00000000  1
  Sb  Sb14  1  1.00000000  0.50000000  0.88621000  1
  Sb  Sb15  1  0.00004200  0.50081900  0.65921600  1
  Sb  Sb16  1  0.00000000  0.33232000  1.00000000  1
  Sb  Sb17  1  0.50000000  0.33232000  0.88621000  1
  Sb  Sb18  1  0.00000000  0.33232000  0.77241000  1
  Sb  Sb19  1  0.50055800  0.33712800  0.64969000  1
  Sb  Sb20  1  0.99855500  0.33323800  0.55344400  1
  Sb  Sb21  1  0.50000000  0.83232000  1.00000000  1
  Sb  Sb22  1  0.50333200  0.83097400  0.55346600  1
  Sb  Sb23  1  0.50000000  0.16768000  1.00000000  1
  Sb  Sb24  1  0.00000000  0.16768000  0.88621000  1
  Sb  Sb25  1  0.50000000  0.16768000  0.77241000  1
  Sb  Sb26  1  0.49970500  0.18412700  0.54186200  1
  Sb  Sb27  1  0.50000000  0.66768000  0.88621000  1
  Sb  Sb28  1  1.00000000  0.66768000  0.77241000  1
  Sb  Sb29  1  0.49908000  0.66523500  0.66845700  1
  Cl  Cl30  1  0.50738300  0.46874600  0.48185700  1
  O  O31  1  0.00000000  0.17164000  0.95506000  1
  O  O32  1  0.50000000  0.17164000  0.84126000  1
  O  O33  1  0.99980400  0.15525700  0.72934800  1
  O  O34  1  0.49896700  0.15342200  0.61463300  1
  O  O35  1  0.50000000  0.17164000  0.93115000  1
  O  O36  1  0.00000000  0.17164000  0.81736000  1
  O  O37  1  0.50033200  0.18183700  0.70268500  1
  O  O38  1  0.99675000  0.17494600  0.59753900  1
  O  O39  1  0.30253000  0.67164000  1.00000000  1
  O  O40  1  0.80253000  0.67164000  0.88621000  1
  O  O41  1  0.30253000  0.67164000  0.77241000  1
  O  O42  1  0.80053200  0.65523900  0.66666667  1
  O  O43  1  0.30530300  0.67356800  0.54845800  1
  O  O44  1  0.69747000  0.67164000  1.00000000  1
  O  O45  1  0.19747000  0.67164000  0.88621000  1
  O  O46  1  0.69747000  0.67164000  0.77241000  1
  O  O47  1  0.19778300  0.65591000  0.66737300  1
  O  O48  1  0.70459800  0.67537800  0.54928400  1
  O  O49  1  0.30253000  0.32836000  1.00000000  1
  O  O50  1  0.80253000  0.32836000  0.88621000  1
  O  O51  1  0.30253000  0.32836000  0.77241000  1
  O  O52  1  0.81023500  0.32973400  0.66411400  1
  O  O53  1  0.31166900  0.34242300  0.56754800  1
  O  O54  1  0.69747000  0.32836000  1.00000000  1
  O  O55  1  0.19747000  0.32836000  0.88621000  1
  O  O56  1  0.69747000  0.32836000  0.77241000  1
  O  O57  1  0.18988100  0.32946200  0.66382600  1
  O  O58  1  0.68127100  0.34595100  0.56938900  1
  O  O59  1  1.00000000  0.82836000  0.95506000  1
  O  O60  1  0.50000000  0.82836000  0.84126000  1
  O  O61  1  0.99978400  0.84468700  0.72933600  1
  O  O62  1  0.49986200  0.83304000  0.62241600  1
  O  O63  1  0.50000000  0.82836000  0.93115000  1
  O  O64  1  1.00000000  0.82836000  0.81736000  1
  O  O65  1  0.49968500  0.83871300  0.70656900  1
  O  O66  1  0.00648900  0.82816500  0.60103700  1
  O  O67  1  1.00000000  0.50000000  0.95668000  1
  O  O68  1  0.50000000  0.50000000  0.84289000  1
  O  O69  1  0.99950800  0.49998000  0.72830400  1
  O  O70  1  0.49564300  0.52385800  0.61884200  1
  O  O71  1  0.50000000  0.50000000  0.92952000  1
  O  O72  1  1.00000000  0.50000000  0.81573000  1
  O  O73  1  0.49993300  0.49022300  0.70624200  1
  O  O74  1  0.00067500  0.50128200  0.59294300  1
  O  O75  1  0.30966000  1.00000000  1.00000000  1
  O  O76  1  0.80966000  1.00000000  0.88621000  1
  O  O77  1  0.30966000  1.00000000  0.77241000  1
  O  O78  1  0.80318800  0.02082900  0.66185600  1
  O  O79  1  0.30167900  0.98462700  0.54592400  1
  O  O80  1  0.69034000  1.00000000  1.00000000  1
  O  O81  1  0.19034000  1.00000000  0.88621000  1
  O  O82  1  0.69034000  1.00000000  0.77241000  1
  O  O83  1  0.19650100  0.02131200  0.66178000  1
  O  O84  1  0.70339200  0.98415300  0.54627600  1
