# generated using pymatgen
data_MgTiMnVZnCrFeCoCuNiSb20ClO54
_symmetry_space_group_name_H-M   'P 1'
_cell_length_a   6.59548700
_cell_length_b   9.70498500
_cell_length_c   28.77018500
_cell_angle_alpha   89.72924600
_cell_angle_beta   89.99595200
_cell_angle_gamma   89.99699400
_symmetry_Int_Tables_number   1
_chemical_formula_structural   MgTiMnVZnCrFeCoCuNiSb20ClO54
_chemical_formula_sum
'Mg1 Ti1 Mn1 V1 Zn1 Cr1 Fe1 Co1 Cu1 Ni1 Sb20 Cl1 O54'
_cell_volume   1841.53314906
_cell_formula_units_Z   1
loop_
 _symmetry_equiv_pos_site_id
 _symmetry_equiv_pos_as_xyz
  1  'x, y, z'
loop_
 _atom_site_type_symbol
 _atom_site_label
 _atom_site_symmetry_multiplicity
 _atom_site_fract_x
 _atom_site_fract_y
 _atom_site_fract_z
 _atom_site_occupancy
  Mg  Mg0  1  0.50028300  0.15847700  0.54280000  1
  Ti  Ti1  1  0.00000000  0.00000000  0.00000000  1
  Mn  Mn2  1  0.00034000  0.32673500  0.54780200  1
  V  V3  1  0.50000000  0.83232000  1.00000000  1
  Zn  Zn4  1  0.00000000  0.83232000  0.88621000  1
  Cr  Cr5  1  0.00000000  0.66768000  0.77241000  1
  Fe  Fe6  1  0.50000000  0.33232000  0.88621000  1
  Co  Co7  1  0.00049200  0.99854800  0.54611700  1
  Cu  Cu8  1  0.00000000  0.16768000  0.88621000  1
  Ni  Ni9  1  0.50060500  0.43844600  0.53334500  1
  Sb  Sb10  1  0.50000000  0.00000000  0.88621000  1
  Sb  Sb11  1  0.00000000  0.00000000  0.77241000  1
  Sb  Sb12  1  0.49969800  0.99577100  0.65663400  1
  Sb  Sb13  1  0.50000000  0.50000000  1.00000000  1
  Sb  Sb14  1  0.00000000  0.50000000  0.88621000  1
  Sb  Sb15  1  0.50000000  0.50000000  0.77241000  1
  Sb  Sb16  1  0.99979900  0.51578500  0.65516600  1
  Sb  Sb17  1  0.00000000  0.33232000  1.00000000  1
  Sb  Sb18  1  0.00000000  0.33232000  0.77241000  1
  Sb  Sb19  1  0.49989700  0.32721800  0.65523300  1
  Sb  Sb20  1  0.50000000  0.83232000  0.77241000  1
  Sb  Sb21  1  0.00030100  0.83261300  0.65852100  1
  Sb  Sb22  1  0.50023700  0.84372200  0.52297900  1
  Sb  Sb23  1  0.50000000  0.16768000  1.00000000  1
  Sb  Sb24  1  0.50000000  0.16768000  0.77241000  1
  Sb  Sb25  1  0.99989200  0.16499000  0.65415200  1
  Sb  Sb26  1  0.00000000  0.66768000  1.00000000  1
  Sb  Sb27  1  0.50000000  0.66768000  0.88621000  1
  Sb  Sb28  1  0.49995700  0.66269100  0.61694700  1
  Sb  Sb29  1  0.00012800  0.68835800  0.53903000  1
  Cl  Cl30  1  0.50546600  0.53388200  0.46561200  1
  O  O31  1  0.00000000  0.17164000  0.95506000  1
  O  O32  1  0.50000000  0.17164000  0.84126000  1
  O  O33  1  0.99980400  0.15525700  0.72934800  1
  O  O34  1  0.49994400  0.15856000  0.61447400  1
  O  O35  1  0.50000000  0.17164000  0.93115000  1
  O  O36  1  0.00000000  0.17164000  0.81736000  1
  O  O37  1  0.49999600  0.15911300  0.70230600  1
  O  O38  1  0.00041300  0.16025700  0.58707500  1
  O  O39  1  0.30253000  0.67164000  1.00000000  1
  O  O40  1  0.80253000  0.67164000  0.88621000  1
  O  O41  1  0.30253000  0.67164000  0.77241000  1
  O  O42  1  0.79763500  0.68557800  0.66102700  1
  O  O43  1  0.31110500  0.68787100  0.55811100  1
  O  O44  1  0.69747000  0.67164000  1.00000000  1
  O  O45  1  0.19747000  0.67164000  0.88621000  1
  O  O46  1  0.69747000  0.67164000  0.77241000  1
  O  O47  1  0.20256100  0.68523600  0.66095300  1
  O  O48  1  0.68995400  0.68917600  0.55842600  1
  O  O49  1  0.30253000  0.32836000  1.00000000  1
  O  O50  1  0.80253000  0.32836000  0.88621000  1
  O  O51  1  0.30253000  0.32836000  0.77241000  1
  O  O52  1  0.80018600  0.31213900  0.66336000  1
  O  O53  1  0.27269500  0.31129000  0.53453600  1
  O  O54  1  0.69747000  0.32836000  1.00000000  1
  O  O55  1  0.19747000  0.32836000  0.88621000  1
  O  O56  1  0.69747000  0.32836000  0.77241000  1
  O  O57  1  0.19961800  0.31207300  0.66356200  1
  O  O58  1  0.72807300  0.31100800  0.53455400  1
  O  O59  1  0.00000000  0.82836000  0.95506000  1
  O  O60  1  0.50000000  0.82836000  0.84126000  1
  O  O61  1  0.99978400  0.84468700  0.72933600  1
  O  O62  1  0.49570000  0.87630400  0.60393000  1
  O  O63  1  0.50000000  0.82836000  0.93115000  1
  O  O64  1  0.00000000  0.82836000  0.81736000  1
  O  O65  1  0.49999900  0.84939600  0.70303500  1
  O  O66  1  0.00103300  0.84427000  0.59027100  1
  O  O67  1  0.00000000  0.50000000  0.95668000  1
  O  O68  1  0.50000000  0.50000000  0.84289000  1
  O  O69  1  0.99950800  0.49998000  0.72830400  1
  O  O70  1  0.50003000  0.44610000  0.60029900  1
  O  O71  1  0.50000000  0.50000000  0.92952000  1
  O  O72  1  0.00000000  0.50000000  0.81573000  1
  O  O73  1  0.50034100  0.47761800  0.70089400  1
  O  O74  1  0.99995300  0.50666900  0.57112800  1
  O  O75  1  0.30966000  0.00000000  0.00000000  1
  O  O76  1  0.80966000  0.00000000  0.88621000  1
  O  O77  1  0.30966000  0.00000000  0.77241000  1
  O  O78  1  0.80890900  0.00052800  0.66061200  1
  O  O79  1  0.27837900  0.00273900  0.53156400  1
  O  O80  1  0.69034000  0.00000000  0.00000000  1
  O  O81  1  0.19034000  0.00000000  0.88621000  1
  O  O82  1  0.69034000  0.00000000  0.77241000  1
  O  O83  1  0.19057800  0.00069000  0.66110200  1
  O  O84  1  0.72208100  0.00227800  0.53190000  1
