# generated using pymatgen
data_MgTiMnVZnCrFeCoCuNiSb20ClO54
_symmetry_space_group_name_H-M   'P 1'
_cell_length_a   6.72137800
_cell_length_b   9.56133500
_cell_length_c   29.04773900
_cell_angle_alpha   89.83916400
_cell_angle_beta   89.96839200
_cell_angle_gamma   89.96103600
_symmetry_Int_Tables_number   1
_chemical_formula_structural   MgTiMnVZnCrFeCoCuNiSb20ClO54
_chemical_formula_sum
'Mg1 Ti1 Mn1 V1 Zn1 Cr1 Fe1 Co1 Cu1 Ni1 Sb20 Cl1 O54'
_cell_volume   1866.75494954
_cell_formula_units_Z   1
loop_
 _symmetry_equiv_pos_site_id
 _symmetry_equiv_pos_as_xyz
  1  'x, y, z'
loop_
 _atom_site_type_symbol
 _atom_site_label
 _atom_site_symmetry_multiplicity
 _atom_site_fract_x
 _atom_site_fract_y
 _atom_site_fract_z
 _atom_site_occupancy
  Mg  Mg0  1  0.50000000  0.83232000  0.00000000  1
  Ti  Ti1  1  0.02712300  0.64821900  0.57420200  1
  Mn  Mn2  1  0.00000000  0.66768000  0.77241000  1
  V  V3  1  0.99380400  0.49341000  0.66546200  1
  Zn  Zn4  1  0.49968400  0.99973100  0.65782700  1
  Cr  Cr5  1  0.00209700  0.98787100  0.54692800  1
  Fe  Fe6  1  0.49143900  0.49048300  0.54760500  1
  Co  Co7  1  0.50000000  0.66768000  0.88621000  1
  Cu  Cu8  1  0.50000000  1.00000000  0.88621000  1
  Ni  Ni9  1  0.00000000  0.50000000  0.88621000  1
  Sb  Sb10  1  0.00000000  0.00000000  0.00000000  1
  Sb  Sb11  1  0.00000000  0.00000000  0.77241000  1
  Sb  Sb12  1  0.50000000  0.50000000  0.00000000  1
  Sb  Sb13  1  0.50000000  0.50000000  0.77241000  1
  Sb  Sb14  1  0.00000000  0.66768000  0.00000000  1
  Sb  Sb15  1  0.49914100  0.67944500  0.65272400  1
  Sb  Sb16  1  0.50000000  0.16768000  0.00000000  1
  Sb  Sb17  1  1.00000000  0.16768000  0.88621000  1
  Sb  Sb18  1  0.50000000  0.16768000  0.77241000  1
  Sb  Sb19  1  0.00159700  0.16533300  0.65179200  1
  Sb  Sb20  1  0.49142400  0.17787400  0.54492500  1
  Sb  Sb21  1  0.00000000  0.83232000  0.88621000  1
  Sb  Sb22  1  0.50000000  0.83232000  0.77241000  1
  Sb  Sb23  1  0.99542200  0.83778100  0.66013700  1
  Sb  Sb24  1  0.55849300  0.79976600  0.53423700  1
  Sb  Sb25  1  1.00000000  0.33232000  0.00000000  1
  Sb  Sb26  1  0.50000000  0.33232000  0.88621000  1
  Sb  Sb27  1  1.00000000  0.33232000  0.77241000  1
  Sb  Sb28  1  0.49813900  0.33657500  0.65709900  1
  Sb  Sb29  1  0.99459100  0.35072600  0.53675600  1
  Cl  Cl30  1  0.49475100  0.48066400  0.47268600  1
  O  O31  1  0.00000000  0.82836000  0.95506000  1
  O  O32  1  0.50000000  0.82836000  0.84126000  1
  O  O33  1  0.00019600  0.84474300  0.72934800  1
  O  O34  1  0.51418900  0.83128400  0.60292400  1
  O  O35  1  0.50000000  0.82836000  0.93115000  1
  O  O36  1  0.00000000  0.82836000  0.81736000  1
  O  O37  1  0.49622500  0.83499600  0.70307800  1
  O  O38  1  0.00740800  0.84269100  0.58995500  1
  O  O39  1  0.69747000  0.32836000  0.00000000  1
  O  O40  1  0.19747000  0.32836000  0.88621000  1
  O  O41  1  0.69747000  0.32836000  0.77241000  1
  O  O42  1  0.19351500  0.35417100  0.66312100  1
  O  O43  1  0.68166000  0.33902900  0.55001900  1
  O  O44  1  0.30253000  0.32836000  0.00000000  1
  O  O45  1  0.80253000  0.32836000  0.88621000  1
  O  O46  1  0.30253000  0.32836000  0.77241000  1
  O  O47  1  0.80285400  0.34915800  0.66546500  1
  O  O48  1  0.30790100  0.34477700  0.55405100  1
  O  O49  1  0.69747000  0.67164000  0.00000000  1
  O  O50  1  0.19747000  0.67164000  0.88621000  1
  O  O51  1  0.69747000  0.67164000  0.77241000  1
  O  O52  1  0.16905000  0.66137900  0.64685600  1
  O  O53  1  0.76391900  0.64762100  0.54429300  1
  O  O54  1  0.30253000  0.67164000  0.00000000  1
  O  O55  1  0.80253000  0.67164000  0.88621000  1
  O  O56  1  0.30253000  0.67164000  0.77241000  1
  O  O57  1  0.81253700  0.66641000  0.65599800  1
  O  O58  1  0.25968700  0.62166900  0.54679400  1
  O  O59  1  1.00000000  0.17164000  0.95506000  1
  O  O60  1  0.50000000  0.17164000  0.84126000  1
  O  O61  1  0.00021600  0.15531300  0.72933600  1
  O  O62  1  0.50004300  0.16723000  0.61447000  1
  O  O63  1  0.50000000  0.17164000  0.93115000  1
  O  O64  1  1.00000000  0.17164000  0.81736000  1
  O  O65  1  0.49356200  0.17549400  0.70330300  1
  O  O66  1  0.00159000  0.16542500  0.57213600  1
  O  O67  1  0.00000000  0.50000000  0.95668000  1
  O  O68  1  0.50000000  0.50000000  0.84289000  1
  O  O69  1  0.00049200  0.50002000  0.72830400  1
  O  O70  1  0.51090600  0.50046800  0.61118700  1
  O  O71  1  0.50000000  0.50000000  0.92952000  1
  O  O72  1  0.00000000  0.50000000  0.81573000  1
  O  O73  1  0.49466400  0.50462300  0.70197600  1
  O  O74  1  0.98392300  0.46688600  0.59572000  1
  O  O75  1  0.69034000  0.00000000  1.00000000  1
  O  O76  1  0.19034000  1.00000000  0.88621000  1
  O  O77  1  0.69034000  0.00000000  0.77241000  1
  O  O78  1  0.19502900  0.99057800  0.65724100  1
  O  O79  1  0.74641000  0.97153800  0.53017400  1
  O  O80  1  0.30966000  1.00000000  0.00000000  1
  O  O81  1  0.80966000  0.00000000  0.88621000  1
  O  O82  1  0.30966000  1.00000000  0.77241000  1
  O  O83  1  0.80327500  0.99343400  0.65712800  1
  O  O84  1  0.18219500  0.97386600  0.51062300  1
