# generated using pymatgen
data_MgTiMnVZnCrFeCoCuNiSb20ClO54
_symmetry_space_group_name_H-M   'P 1'
_cell_length_a   6.70269900
_cell_length_b   9.56601800
_cell_length_c   29.55033400
_cell_angle_alpha   89.95683600
_cell_angle_beta   89.99935500
_cell_angle_gamma   89.99791100
_symmetry_Int_Tables_number   1
_chemical_formula_structural   MgTiMnVZnCrFeCoCuNiSb20ClO54
_chemical_formula_sum
'Mg1 Ti1 Mn1 V1 Zn1 Cr1 Fe1 Co1 Cu1 Ni1 Sb20 Cl1 O54'
_cell_volume   1894.71189222
_cell_formula_units_Z   1
loop_
 _symmetry_equiv_pos_site_id
 _symmetry_equiv_pos_as_xyz
  1  'x, y, z'
loop_
 _atom_site_type_symbol
 _atom_site_label
 _atom_site_symmetry_multiplicity
 _atom_site_fract_x
 _atom_site_fract_y
 _atom_site_fract_z
 _atom_site_occupancy
  Mg  Mg0  1  0.00000000  0.66768000  0.22759000  1
  Ti  Ti1  1  0.50092500  0.47998100  0.44565800  1
  Mn  Mn2  1  1.00000000  0.16768000  0.11379000  1
  V  V3  1  0.00034900  0.85367000  0.33092100  1
  Zn  Zn4  1  0.50002500  0.32421400  0.33832100  1
  Cr  Cr5  1  1.00000000  1.00000000  0.22759000  1
  Fe  Fe6  1  0.00045200  0.17361800  0.33621600  1
  Co  Co7  1  0.00178300  0.32523300  0.43034800  1
  Cu  Cu8  1  0.50000000  0.16768000  0.22759000  1
  Ni  Ni9  1  0.00209800  0.98711600  0.43046900  1
  Sb  Sb10  1  0.00000000  0.00000000  0.00000000  1
  Sb  Sb11  1  0.50000000  1.00000000  0.11379000  1
  Sb  Sb12  1  0.50014300  0.01022300  0.33574700  1
  Sb  Sb13  1  0.50000000  0.50000000  0.00000000  1
  Sb  Sb14  1  0.00000000  0.50000000  0.11379000  1
  Sb  Sb15  1  0.50000000  0.50000000  0.22759000  1
  Sb  Sb16  1  0.00005000  0.49593600  0.33803700  1
  Sb  Sb17  1  0.00000000  0.66768000  0.00000000  1
  Sb  Sb18  1  0.50000000  0.66768000  0.11379000  1
  Sb  Sb19  1  0.50001800  0.65493900  0.33789500  1
  Sb  Sb20  1  0.00014500  0.68292600  0.44775500  1
  Sb  Sb21  1  0.50000000  0.16768000  0.00000000  1
  Sb  Sb22  1  0.50201800  0.16371300  0.45311800  1
  Sb  Sb23  1  0.50000000  0.83232000  0.00000000  1
  Sb  Sb24  1  0.00000000  0.83232000  0.11379000  1
  Sb  Sb25  1  0.50000000  0.83232000  0.22759000  1
  Sb  Sb26  1  0.50102500  0.82341700  0.44489100  1
  Sb  Sb27  1  1.00000000  0.33232000  0.00000000  1
  Sb  Sb28  1  0.50000000  0.33232000  0.11379000  1
  Sb  Sb29  1  1.00000000  0.33232000  0.22759000  1
  Cl  Cl30  1  0.50747000  0.52097700  0.52297100  1
  O  O31  1  0.00000000  0.82836000  0.04494000  1
  O  O32  1  0.50000000  0.82836000  0.15874000  1
  O  O33  1  0.99980400  0.84474300  0.27065200  1
  O  O34  1  0.49851700  0.83405700  0.37732400  1
  O  O35  1  0.50000000  0.82836000  0.06885000  1
  O  O36  1  1.00000000  0.82836000  0.18264000  1
  O  O37  1  0.50013900  0.82840100  0.29599100  1
  O  O38  1  0.00210200  0.81712300  0.39580200  1
  O  O39  1  0.30253000  0.32836000  0.00000000  1
  O  O40  1  0.80253000  0.32836000  0.11379000  1
  O  O41  1  0.30253000  0.32836000  0.22759000  1
  O  O42  1  0.81841200  0.32241100  0.33840500  1
  O  O43  1  0.29342700  0.34552600  0.44697700  1
  O  O44  1  0.69747000  0.32836000  0.00000000  1
  O  O45  1  0.19747000  0.32836000  0.11379000  1
  O  O46  1  0.69747000  0.32836000  0.22759000  1
  O  O47  1  0.18195000  0.32253600  0.33824800  1
  O  O48  1  0.70867200  0.34460200  0.44614500  1
  O  O49  1  0.30253000  0.67164000  0.00000000  1
  O  O50  1  0.80253000  0.67164000  0.11379000  1
  O  O51  1  0.30253000  0.67164000  0.22759000  1
  O  O52  1  0.80357800  0.66552400  0.33447600  1
  O  O53  1  0.31575100  0.66119300  0.44163600  1
  O  O54  1  0.69747000  0.67164000  0.00000000  1
  O  O55  1  0.19747000  0.67164000  0.11379000  1
  O  O56  1  0.69747000  0.67164000  0.22759000  1
  O  O57  1  0.19639200  0.66537800  0.33421200  1
  O  O58  1  0.68578400  0.66128200  0.43970800  1
  O  O59  1  1.00000000  0.17164000  0.04494000  1
  O  O60  1  0.50000000  0.17164000  0.15874000  1
  O  O61  1  0.99978400  0.15531300  0.27066400  1
  O  O62  1  0.50031800  0.15183400  0.38546500  1
  O  O63  1  0.50000000  0.17164000  0.06885000  1
  O  O64  1  1.00000000  0.17164000  0.18264000  1
  O  O65  1  0.50018400  0.16552100  0.29498000  1
  O  O66  1  0.00330000  0.15748500  0.40053500  1
  O  O67  1  0.00000000  0.50000000  0.04332000  1
  O  O68  1  0.50000000  0.50000000  0.15711000  1
  O  O69  1  0.99950800  0.50002000  0.27169600  1
  O  O70  1  0.49777800  0.49599900  0.37960200  1
  O  O71  1  0.50000000  0.50000000  0.07048000  1
  O  O72  1  0.00000000  0.50000000  0.18427000  1
  O  O73  1  0.50105000  0.49809300  0.29380200  1
  O  O74  1  0.00204400  0.51211900  0.40616800  1
  O  O75  1  0.30966000  0.00000000  0.00000000  1
  O  O76  1  0.80966000  1.00000000  0.11379000  1
  O  O77  1  0.30966000  1.00000000  0.22759000  1
  O  O78  1  0.81241100  0.00058100  0.33696500  1
  O  O79  1  0.28622000  0.97201300  0.45105800  1
  O  O80  1  0.69034000  0.00000000  0.00000000  1
  O  O81  1  0.19034000  1.00000000  0.11379000  1
  O  O82  1  0.69034000  1.00000000  0.22759000  1
  O  O83  1  0.18789500  0.00104100  0.33670000  1
  O  O84  1  0.71599800  0.97206500  0.45095200  1
