# generated using pymatgen
data_MgTiMnVZnCrFeCoCuNiSb20ClO54
_symmetry_space_group_name_H-M   'P 1'
_cell_length_a   6.65203500
_cell_length_b   9.48555800
_cell_length_c   29.23627900
_cell_angle_alpha   89.97869600
_cell_angle_beta   89.96214600
_cell_angle_gamma   89.99888600
_symmetry_Int_Tables_number   1
_chemical_formula_structural   MgTiMnVZnCrFeCoCuNiSb20ClO54
_chemical_formula_sum
'Mg1 Ti1 Mn1 V1 Zn1 Cr1 Fe1 Co1 Cu1 Ni1 Sb20 Cl1 O54'
_cell_volume   1844.75791470
_cell_formula_units_Z   1
loop_
 _symmetry_equiv_pos_site_id
 _symmetry_equiv_pos_as_xyz
  1  'x, y, z'
loop_
 _atom_site_type_symbol
 _atom_site_label
 _atom_site_symmetry_multiplicity
 _atom_site_fract_x
 _atom_site_fract_y
 _atom_site_fract_z
 _atom_site_occupancy
  Mg  Mg0  1  0.49856800  0.16051800  0.45257900  1
  Ti  Ti1  1  0.49882800  0.49689200  0.45842000  1
  Mn  Mn2  1  0.50000000  0.16768000  0.00000000  1
  V  V3  1  1.00000000  0.33232000  0.22759000  1
  Zn  Zn4  1  0.50000000  0.83232000  0.22759000  1
  Cr  Cr5  1  0.49878400  0.83064500  0.44940800  1
  Fe  Fe6  1  0.00019700  0.83224800  0.33746000  1
  Co  Co7  1  1.00000000  0.66768000  0.22759000  1
  Cu  Cu8  1  1.00000000  0.16768000  0.11379000  1
  Ni  Ni9  1  0.00000000  0.66768000  0.00000000  1
  Sb  Sb10  1  0.00000000  0.00000000  0.00000000  1
  Sb  Sb11  1  0.50000000  1.00000000  0.11379000  1
  Sb  Sb12  1  1.00000000  0.00000000  0.22759000  1
  Sb  Sb13  1  0.49995100  0.99555800  0.34152500  1
  Sb  Sb14  1  0.99831600  0.99065700  0.46011600  1
  Sb  Sb15  1  0.50000000  0.50000000  0.00000000  1
  Sb  Sb16  1  1.00000000  0.50000000  0.11379000  1
  Sb  Sb17  1  0.50000000  0.50000000  0.22759000  1
  Sb  Sb18  1  0.99997200  0.50657300  0.33902900  1
  Sb  Sb19  1  1.00000000  0.33232000  0.00000000  1
  Sb  Sb20  1  0.50000000  0.33232000  0.11379000  1
  Sb  Sb21  1  0.49968200  0.33258200  0.34661300  1
  Sb  Sb22  1  0.99947100  0.33447200  0.46105700  1
  Sb  Sb23  1  0.50000000  0.83232000  0.00000000  1
  Sb  Sb24  1  1.00000000  0.83232000  0.11379000  1
  Sb  Sb25  1  0.50000000  0.16768000  0.22759000  1
  Sb  Sb26  1  0.99915000  0.15630800  0.34203000  1
  Sb  Sb27  1  0.50000000  0.66768000  0.11379000  1
  Sb  Sb28  1  0.50016200  0.66764800  0.34106900  1
  Sb  Sb29  1  0.99909000  0.66709700  0.45665800  1
  Cl  Cl30  1  0.49157700  0.49939500  0.53623700  1
  O  O31  1  1.00000000  0.17164000  0.04494000  1
  O  O32  1  0.50000000  0.17164000  0.15874000  1
  O  O33  1  0.00019600  0.15525700  0.27065200  1
  O  O34  1  0.50174500  0.15943600  0.38481000  1
  O  O35  1  0.50000000  0.17164000  0.06885000  1
  O  O36  1  1.00000000  0.17164000  0.18264000  1
  O  O37  1  0.49995000  0.16931700  0.29762200  1
  O  O38  1  0.99733000  0.16265600  0.41422400  1
  O  O39  1  0.69747000  0.67164000  0.00000000  1
  O  O40  1  0.19747000  0.67164000  0.11379000  1
  O  O41  1  0.69747000  0.67164000  0.22759000  1
  O  O42  1  0.19663900  0.66731800  0.34149400  1
  O  O43  1  0.68156900  0.66336000  0.45195900  1
  O  O44  1  0.30253000  0.67164000  0.00000000  1
  O  O45  1  0.80253000  0.67164000  0.11379000  1
  O  O46  1  0.30253000  0.67164000  0.22759000  1
  O  O47  1  0.80380100  0.66745200  0.34109200  1
  O  O48  1  0.31532600  0.66355100  0.45111600  1
  O  O49  1  0.69747000  0.32836000  0.00000000  1
  O  O50  1  0.19747000  0.32836000  0.11379000  1
  O  O51  1  0.69747000  0.32836000  0.22759000  1
  O  O52  1  0.19491400  0.33136900  0.34170400  1
  O  O53  1  0.68763600  0.34415500  0.45155000  1
  O  O54  1  0.30253000  0.32836000  0.00000000  1
  O  O55  1  0.80253000  0.32836000  0.11379000  1
  O  O56  1  0.30253000  0.32836000  0.22759000  1
  O  O57  1  0.80432900  0.33198400  0.34137100  1
  O  O58  1  0.30932100  0.34395400  0.45032900  1
  O  O59  1  1.00000000  0.82836000  0.04494000  1
  O  O60  1  0.50000000  0.82836000  0.15874000  1
  O  O61  1  0.00021600  0.84468700  0.27066400  1
  O  O62  1  0.50133200  0.83102400  0.38560100  1
  O  O63  1  0.50000000  0.82836000  0.06885000  1
  O  O64  1  1.00000000  0.82836000  0.18264000  1
  O  O65  1  0.49980500  0.83314300  0.29844400  1
  O  O66  1  0.99772400  0.83077400  0.41191200  1
  O  O67  1  1.00000000  0.50000000  0.04332000  1
  O  O68  1  0.50000000  0.50000000  0.15711000  1
  O  O69  1  0.00049200  0.49998000  0.27169600  1
  O  O70  1  0.50198400  0.50478900  0.38557500  1
  O  O71  1  0.50000000  0.50000000  0.07048000  1
  O  O72  1  1.00000000  0.50000000  0.18427000  1
  O  O73  1  0.49838000  0.49259300  0.29824200  1
  O  O74  1  0.99754500  0.49975700  0.41034200  1
  O  O75  1  0.69034000  0.00000000  0.00000000  1
  O  O76  1  0.19034000  1.00000000  0.11379000  1
  O  O77  1  0.69034000  0.00000000  0.22759000  1
  O  O78  1  0.19807700  0.99549900  0.34311900  1
  O  O79  1  0.68423000  0.98343900  0.45740200  1
  O  O80  1  0.30966000  1.00000000  0.00000000  1
  O  O81  1  0.80966000  0.00000000  0.11379000  1
  O  O82  1  0.30966000  1.00000000  0.22759000  1
  O  O83  1  0.80206400  0.99479300  0.34271300  1
  O  O84  1  0.31253700  0.98283900  0.45662300  1
