# generated using pymatgen
data_MgTiMnVZnCrFeCoCuNiSb20ClO54
_symmetry_space_group_name_H-M   'P 1'
_cell_length_a   6.63681600
_cell_length_b   9.56019700
_cell_length_c   28.28939300
_cell_angle_alpha   89.96482000
_cell_angle_beta   89.81334800
_cell_angle_gamma   89.98619600
_symmetry_Int_Tables_number   1
_chemical_formula_structural   MgTiMnVZnCrFeCoCuNiSb20ClO54
_chemical_formula_sum
'Mg1 Ti1 Mn1 V1 Zn1 Cr1 Fe1 Co1 Cu1 Ni1 Sb20 Cl1 O54'
_cell_volume   1794.93137566
_cell_formula_units_Z   1
loop_
 _symmetry_equiv_pos_site_id
 _symmetry_equiv_pos_as_xyz
  1  'x, y, z'
loop_
 _atom_site_type_symbol
 _atom_site_label
 _atom_site_symmetry_multiplicity
 _atom_site_fract_x
 _atom_site_fract_y
 _atom_site_fract_z
 _atom_site_occupancy
  Mg  Mg0  1  0.50000000  0.33232000  0.11379000  1
  Ti  Ti1  1  1.00000000  0.33232000  0.22759000  1
  Mn  Mn2  1  0.00000000  0.33232000  1.00000000  1
  V  V3  1  0.49996800  0.49798400  0.45560100  1
  Zn  Zn4  1  0.49969900  0.33643600  0.34477700  1
  Cr  Cr5  1  0.50000000  0.16768000  1.00000000  1
  Fe  Fe6  1  1.00000000  0.83232000  0.11379000  1
  Co  Co7  1  1.00000000  0.66768000  0.00000000  1
  Cu  Cu8  1  0.50000000  0.00000000  0.11379000  1
  Ni  Ni9  1  0.50000000  0.83232000  0.00000000  1
  Sb  Sb10  1  0.00000000  0.00000000  0.00000000  1
  Sb  Sb11  1  1.00000000  1.00000000  0.22759000  1
  Sb  Sb12  1  0.49788400  0.01367900  0.34914600  1
  Sb  Sb13  1  0.00114200  0.00524600  0.47423100  1
  Sb  Sb14  1  0.50000000  0.50000000  1.00000000  1
  Sb  Sb15  1  1.00000000  0.50000000  0.11379000  1
  Sb  Sb16  1  0.50000000  0.50000000  0.22759000  1
  Sb  Sb17  1  0.99978800  0.49367300  0.34737100  1
  Sb  Sb18  1  0.50000000  0.66768000  0.11379000  1
  Sb  Sb19  1  1.00000000  0.66768000  0.22759000  1
  Sb  Sb20  1  0.49718000  0.66739300  0.34454000  1
  Sb  Sb21  1  0.99265800  0.65108000  0.48167500  1
  Sb  Sb22  1  1.00000000  0.16768000  0.11379000  1
  Sb  Sb23  1  0.50000000  0.16768000  0.22759000  1
  Sb  Sb24  1  0.99914500  0.17256000  0.34541200  1
  Sb  Sb25  1  0.50393200  0.16795800  0.46489000  1
  Sb  Sb26  1  0.50000000  0.83232000  0.22759000  1
  Sb  Sb27  1  0.99674800  0.83026900  0.35591800  1
  Sb  Sb28  1  0.50286900  0.82142600  0.46907600  1
  Sb  Sb29  1  0.99462100  0.33197000  0.47111600  1
  Cl  Cl30  1  0.54884100  0.49922800  0.53752100  1
  O  O31  1  1.00000000  0.82836000  0.04494000  1
  O  O32  1  0.50000000  0.82836000  0.15874000  1
  O  O33  1  0.99980400  0.84474300  0.27065200  1
  O  O34  1  0.49398400  0.82722700  0.39287600  1
  O  O35  1  0.50000000  0.82836000  0.06885000  1
  O  O36  1  1.00000000  0.82836000  0.18264000  1
  O  O37  1  0.49998000  0.84371600  0.30002800  1
  O  O38  1  0.00852300  0.82033000  0.43929400  1
  O  O39  1  0.30253000  0.32836000  0.00000000  1
  O  O40  1  0.80253000  0.32836000  0.11379000  1
  O  O41  1  0.30253000  0.32836000  0.22759000  1
  O  O42  1  0.80032300  0.32380600  0.33977600  1
  O  O43  1  0.31213200  0.35799900  0.45824600  1
  O  O44  1  0.69747000  0.32836000  0.00000000  1
  O  O45  1  0.19747000  0.32836000  0.11379000  1
  O  O46  1  0.69747000  0.32836000  0.22759000  1
  O  O47  1  0.19810300  0.32347300  0.33950800  1
  O  O48  1  0.69100300  0.35378200  0.45189400  1
  O  O49  1  0.30253000  0.67164000  0.00000000  1
  O  O50  1  0.80253000  0.67164000  0.11379000  1
  O  O51  1  0.30253000  0.67164000  0.22759000  1
  O  O52  1  0.78902100  0.67394800  0.33436200  1
  O  O53  1  0.30989900  0.64326400  0.46078100  1
  O  O54  1  0.69747000  0.67164000  0.00000000  1
  O  O55  1  0.19747000  0.67164000  0.11379000  1
  O  O56  1  0.69747000  0.67164000  0.22759000  1
  O  O57  1  0.20677500  0.67605000  0.33365300  1
  O  O58  1  0.69387400  0.64935300  0.45374400  1
  O  O59  1  1.00000000  0.17164000  0.04494000  1
  O  O60  1  0.50000000  0.17164000  0.15874000  1
  O  O61  1  0.99978400  0.15531300  0.27066400  1
  O  O62  1  0.49454500  0.17528300  0.39335800  1
  O  O63  1  0.50000000  0.17164000  0.06885000  1
  O  O64  1  1.00000000  0.17164000  0.18264000  1
  O  O65  1  0.49895000  0.16146100  0.29718200  1
  O  O66  1  0.00429300  0.17168100  0.42011300  1
  O  O67  1  1.00000000  0.50000000  0.04332000  1
  O  O68  1  0.50000000  0.50000000  0.15711000  1
  O  O69  1  0.99950800  0.50002000  0.27169600  1
  O  O70  1  0.49119600  0.50885300  0.38878600  1
  O  O71  1  0.50000000  0.50000000  0.07048000  1
  O  O72  1  1.00000000  0.50000000  0.18427000  1
  O  O73  1  0.49885600  0.50649500  0.29749700  1
  O  O74  1  0.00406000  0.50274200  0.43006400  1
  O  O75  1  0.30966000  1.00000000  0.00000000  1
  O  O76  1  0.80966000  0.00000000  0.11379000  1
  O  O77  1  0.30966000  1.00000000  0.22759000  1
  O  O78  1  0.80039200  0.01473400  0.34372000  1
  O  O79  1  0.30004600  0.99904700  0.45273100  1
  O  O80  1  0.69034000  0.00000000  0.00000000  1
  O  O81  1  0.19034000  1.00000000  0.11379000  1
  O  O82  1  0.69034000  0.00000000  0.22759000  1
  O  O83  1  0.19598800  0.01280400  0.34356800  1
  O  O84  1  0.70426000  0.99697700  0.44994000  1
