# generated using pymatgen
data_MgTiMnVZnCrFeCoCuNiSb20ClO54
_symmetry_space_group_name_H-M   'P 1'
_cell_length_a   6.75525000
_cell_length_b   9.56047700
_cell_length_c   28.89097700
_cell_angle_alpha   89.55386900
_cell_angle_beta   90.52518500
_cell_angle_gamma   89.60554800
_symmetry_Int_Tables_number   1
_chemical_formula_structural   MgTiMnVZnCrFeCoCuNiSb20ClO54
_chemical_formula_sum
'Mg1 Ti1 Mn1 V1 Zn1 Cr1 Fe1 Co1 Cu1 Ni1 Sb20 Cl1 O54'
_cell_volume   1865.69779089
_cell_formula_units_Z   1
loop_
 _symmetry_equiv_pos_site_id
 _symmetry_equiv_pos_as_xyz
  1  'x, y, z'
loop_
 _atom_site_type_symbol
 _atom_site_label
 _atom_site_symmetry_multiplicity
 _atom_site_fract_x
 _atom_site_fract_y
 _atom_site_fract_z
 _atom_site_occupancy
  Mg  Mg0  1  0.00000000  0.00000000  0.00000000  1
  Ti  Ti1  1  1.00000000  0.00000000  0.77241000  1
  Mn  Mn2  1  1.00000000  0.33232000  0.77241000  1
  V  V3  1  0.04281000  0.64918500  0.56114600  1
  Zn  Zn4  1  0.48469400  0.15478200  0.54768600  1
  Cr  Cr5  1  0.45771100  0.45509600  0.54162700  1
  Fe  Fe6  1  1.00000000  0.50000000  0.88621000  1
  Co  Co7  1  0.50000000  0.16768000  0.00000000  1
  Cu  Cu8  1  0.48700500  0.65990300  0.64961900  1
  Ni  Ni9  1  0.50000000  0.00000000  0.88621000  1
  Sb  Sb10  1  0.49485300  0.99514200  0.65919000  1
  Sb  Sb11  1  0.00033500  0.98082100  0.52179700  1
  Sb  Sb12  1  0.50000000  0.50000000  0.00000000  1
  Sb  Sb13  1  0.50000000  0.50000000  0.77241000  1
  Sb  Sb14  1  0.98531800  0.49679200  0.65789400  1
  Sb  Sb15  1  1.00000000  0.33232000  0.00000000  1
  Sb  Sb16  1  0.50000000  0.33232000  0.88621000  1
  Sb  Sb17  1  0.49423600  0.34415600  0.65578600  1
  Sb  Sb18  1  0.94492400  0.34109000  0.52631900  1
  Sb  Sb19  1  0.50000000  0.83232000  0.00000000  1
  Sb  Sb20  1  1.00000000  0.83232000  0.88621000  1
  Sb  Sb21  1  0.50000000  0.83232000  0.77241000  1
  Sb  Sb22  1  0.98664800  0.82636300  0.65375500  1
  Sb  Sb23  1  0.51246800  0.83573300  0.54221100  1
  Sb  Sb24  1  1.00000000  0.16768000  0.88621000  1
  Sb  Sb25  1  0.50000000  0.16768000  0.77241000  1
  Sb  Sb26  1  0.00406400  0.16057000  0.65453000  1
  Sb  Sb27  1  1.00000000  0.66768000  0.00000000  1
  Sb  Sb28  1  0.50000000  0.66768000  0.88621000  1
  Sb  Sb29  1  0.00000000  0.66768000  0.77241000  1
  Cl  Cl30  1  0.55987000  0.53123300  0.47421400  1
  O  O31  1  1.00000000  0.17164000  0.95506000  1
  O  O32  1  0.50000000  0.17164000  0.84126000  1
  O  O33  1  0.99980400  0.15525700  0.72934800  1
  O  O34  1  0.47608500  0.16831900  0.61719000  1
  O  O35  1  0.50000000  0.17164000  0.93115000  1
  O  O36  1  1.00000000  0.17164000  0.81736000  1
  O  O37  1  0.49532800  0.17257200  0.70300700  1
  O  O38  1  0.00326400  0.15800400  0.55871300  1
  O  O39  1  0.30253000  0.67164000  0.00000000  1
  O  O40  1  0.80253000  0.67164000  0.88621000  1
  O  O41  1  0.30253000  0.67164000  0.77241000  1
  O  O42  1  0.78774700  0.64954500  0.64975800  1
  O  O43  1  0.27071900  0.61402300  0.54095600  1
  O  O44  1  0.69747000  0.67164000  0.00000000  1
  O  O45  1  0.19747000  0.67164000  0.88621000  1
  O  O46  1  0.69747000  0.67164000  0.77241000  1
  O  O47  1  0.18042200  0.64614200  0.64225900  1
  O  O48  1  0.89393100  0.65552000  0.51682200  1
  O  O49  1  0.30253000  0.32836000  0.00000000  1
  O  O50  1  0.80253000  0.32836000  0.88621000  1
  O  O51  1  0.30253000  0.32836000  0.77241000  1
  O  O52  1  0.79236500  0.33737000  0.66338500  1
  O  O53  1  0.28617400  0.32870100  0.53424400  1
  O  O54  1  0.69747000  0.32836000  0.00000000  1
  O  O55  1  0.19747000  0.32836000  0.88621000  1
  O  O56  1  0.69747000  0.32836000  0.77241000  1
  O  O57  1  0.19608100  0.34613800  0.66220200  1
  O  O58  1  0.65900500  0.31596500  0.54281800  1
  O  O59  1  0.00000000  0.82836000  0.95506000  1
  O  O60  1  0.50000000  0.82836000  0.84126000  1
  O  O61  1  0.99978400  0.84468700  0.72933600  1
  O  O62  1  0.49477900  0.84431400  0.61221700  1
  O  O63  1  0.50000000  0.82836000  0.93115000  1
  O  O64  1  0.00000000  0.82836000  0.81736000  1
  O  O65  1  0.50443100  0.83144000  0.70392400  1
  O  O66  1  0.03399300  0.83775100  0.57591800  1
  O  O67  1  1.00000000  0.50000000  0.95668000  1
  O  O68  1  0.50000000  0.50000000  0.84289000  1
  O  O69  1  0.99950800  0.49998000  0.72830400  1
  O  O70  1  0.49112500  0.48247800  0.60403800  1
  O  O71  1  0.50000000  0.50000000  0.92952000  1
  O  O72  1  1.00000000  0.50000000  0.81573000  1
  O  O73  1  0.49333700  0.50445200  0.69991300  1
  O  O74  1  0.96828000  0.47363000  0.58575600  1
  O  O75  1  0.30966000  0.00000000  0.00000000  1
  O  O76  1  0.80966000  0.00000000  0.88621000  1
  O  O77  1  0.30966000  0.00000000  0.77241000  1
  O  O78  1  0.78065600  0.00676700  0.66126600  1
  O  O79  1  0.31750500  0.99182300  0.53277900  1
  O  O80  1  0.69034000  0.00000000  0.00000000  1
  O  O81  1  0.19034000  0.00000000  0.88621000  1
  O  O82  1  0.69034000  0.00000000  0.77241000  1
  O  O83  1  0.20892900  0.99160500  0.66497900  1
  O  O84  1  0.70042300  0.99361400  0.54050100  1
