# generated using pymatgen
data_MgTiMnVZnCrFeCoCuNiSb20ClO54
_symmetry_space_group_name_H-M   'P 1'
_cell_length_a   6.71321200
_cell_length_b   9.62393700
_cell_length_c   29.52096300
_cell_angle_alpha   89.93737100
_cell_angle_beta   89.94031300
_cell_angle_gamma   89.97533500
_symmetry_Int_Tables_number   1
_chemical_formula_structural   MgTiMnVZnCrFeCoCuNiSb20ClO54
_chemical_formula_sum
'Mg1 Ti1 Mn1 V1 Zn1 Cr1 Fe1 Co1 Cu1 Ni1 Sb20 Cl1 O54'
_cell_volume   1907.27413350
_cell_formula_units_Z   1
loop_
 _symmetry_equiv_pos_site_id
 _symmetry_equiv_pos_as_xyz
  1  'x, y, z'
loop_
 _atom_site_type_symbol
 _atom_site_label
 _atom_site_symmetry_multiplicity
 _atom_site_fract_x
 _atom_site_fract_y
 _atom_site_fract_z
 _atom_site_occupancy
  Mg  Mg0  1  0.00185800  0.01662800  0.44703900  1
  Ti  Ti1  1  0.50000000  0.16768000  0.00000000  1
  Mn  Mn2  1  0.50195300  0.48205100  0.44985300  1
  V  V3  1  0.00000000  0.50000000  0.11379000  1
  Zn  Zn4  1  0.49973800  0.66067100  0.33987300  1
  Cr  Cr5  1  0.49944000  0.16402100  0.44696200  1
  Fe  Fe6  1  0.50000000  0.50000000  0.00000000  1
  Co  Co7  1  0.50000000  0.50000000  0.22759000  1
  Cu  Cu8  1  0.00287900  0.66141500  0.44510800  1
  Ni  Ni9  1  1.00000000  0.66768000  0.00000000  1
  Sb  Sb10  1  0.00000000  0.00000000  0.00000000  1
  Sb  Sb11  1  0.50000000  1.00000000  0.11379000  1
  Sb  Sb12  1  0.00000000  0.00000000  0.22759000  1
  Sb  Sb13  1  0.49925100  0.98660700  0.34292200  1
  Sb  Sb14  1  0.00026900  0.50862000  0.34125900  1
  Sb  Sb15  1  0.50000000  0.66768000  0.11379000  1
  Sb  Sb16  1  0.00000000  0.66768000  0.22759000  1
  Sb  Sb17  1  0.00000000  0.16768000  0.11379000  1
  Sb  Sb18  1  0.50000000  0.16768000  0.22759000  1
  Sb  Sb19  1  0.99854100  0.17557200  0.34910300  1
  Sb  Sb20  1  0.50000000  0.83232000  0.00000000  1
  Sb  Sb21  1  0.00000000  0.83232000  0.11379000  1
  Sb  Sb22  1  0.50000000  0.83232000  0.22759000  1
  Sb  Sb23  1  0.99958400  0.82893700  0.34668200  1
  Sb  Sb24  1  0.50285200  0.79259200  0.45554800  1
  Sb  Sb25  1  0.00000000  0.33232000  0.00000000  1
  Sb  Sb26  1  0.50000000  0.33232000  0.11379000  1
  Sb  Sb27  1  0.00000000  0.33232000  0.22759000  1
  Sb  Sb28  1  0.49957700  0.34804800  0.33898400  1
  Sb  Sb29  1  0.99552100  0.36113900  0.45978800  1
  Cl  Cl30  1  0.50981300  0.48696700  0.52526000  1
  O  O31  1  0.00000000  0.82836000  0.04494000  1
  O  O32  1  0.50000000  0.82836000  0.15874000  1
  O  O33  1  0.99980400  0.84474300  0.27065200  1
  O  O34  1  0.49850400  0.83054600  0.38677800  1
  O  O35  1  0.50000000  0.82836000  0.06885000  1
  O  O36  1  0.00000000  0.82836000  0.18264000  1
  O  O37  1  0.49870000  0.83686400  0.29549200  1
  O  O38  1  0.99774100  0.84493800  0.41241900  1
  O  O39  1  0.30253000  0.32836000  0.00000000  1
  O  O40  1  0.80253000  0.32836000  0.11379000  1
  O  O41  1  0.30253000  0.32836000  0.22759000  1
  O  O42  1  0.80341000  0.34948400  0.33510200  1
  O  O43  1  0.32732800  0.33171700  0.44930700  1
  O  O44  1  0.69747000  0.32836000  0.00000000  1
  O  O45  1  0.19747000  0.32836000  0.11379000  1
  O  O46  1  0.69747000  0.32836000  0.22759000  1
  O  O47  1  0.19576300  0.34804800  0.33463000  1
  O  O48  1  0.68102300  0.33509300  0.44688700  1
  O  O49  1  0.30253000  0.67164000  0.00000000  1
  O  O50  1  0.80253000  0.67164000  0.11379000  1
  O  O51  1  0.30253000  0.67164000  0.22759000  1
  O  O52  1  0.80929400  0.66873500  0.33864000  1
  O  O53  1  0.30336600  0.63862500  0.45054200  1
  O  O54  1  0.69747000  0.67164000  0.00000000  1
  O  O55  1  0.19747000  0.67164000  0.11379000  1
  O  O56  1  0.69747000  0.67164000  0.22759000  1
  O  O57  1  0.19027000  0.66917900  0.33840600  1
  O  O58  1  0.70146500  0.63820700  0.44930500  1
  O  O59  1  0.00000000  0.17164000  0.04494000  1
  O  O60  1  0.50000000  0.17164000  0.15874000  1
  O  O61  1  0.99978400  0.15531300  0.27066400  1
  O  O62  1  0.50213400  0.16434300  0.38326500  1
  O  O63  1  0.50000000  0.17164000  0.06885000  1
  O  O64  1  0.00000000  0.17164000  0.18264000  1
  O  O65  1  0.50011500  0.16047300  0.29862200  1
  O  O66  1  0.00282500  0.19712100  0.41861200  1
  O  O67  1  1.00000000  0.50000000  0.04332000  1
  O  O68  1  0.50000000  0.50000000  0.15711000  1
  O  O69  1  0.99950800  0.50002000  0.27169600  1
  O  O70  1  0.49606500  0.49573300  0.38445800  1
  O  O71  1  0.50000000  0.50000000  0.07048000  1
  O  O72  1  0.00000000  0.50000000  0.18427000  1
  O  O73  1  0.49974500  0.49726100  0.29288900  1
  O  O74  1  0.00525000  0.49016400  0.40640000  1
  O  O75  1  0.30966000  1.00000000  0.00000000  1
  O  O76  1  0.80966000  1.00000000  0.11379000  1
  O  O77  1  0.30966000  1.00000000  0.22759000  1
  O  O78  1  0.79604400  0.98147500  0.33979700  1
  O  O79  1  0.30209600  0.05636800  0.45889600  1
  O  O80  1  0.69034000  1.00000000  0.00000000  1
  O  O81  1  0.19034000  1.00000000  0.11379000  1
  O  O82  1  0.69034000  1.00000000  0.22759000  1
  O  O83  1  0.20225200  0.98242900  0.34001300  1
  O  O84  1  0.69881800  0.06032200  0.45983300  1
