# generated using pymatgen
data_MgTiMnVZnCrFeCoCuNiSb20ClO54
_symmetry_space_group_name_H-M   'P 1'
_cell_length_a   6.68492600
_cell_length_b   9.55345000
_cell_length_c   29.46296000
_cell_angle_alpha   89.89431200
_cell_angle_beta   89.90919300
_cell_angle_gamma   89.94684100
_symmetry_Int_Tables_number   1
_chemical_formula_structural   MgTiMnVZnCrFeCoCuNiSb20ClO54
_chemical_formula_sum
'Mg1 Ti1 Mn1 V1 Zn1 Cr1 Fe1 Co1 Cu1 Ni1 Sb20 Cl1 O54'
_cell_volume   1881.61924008
_cell_formula_units_Z   1
loop_
 _symmetry_equiv_pos_site_id
 _symmetry_equiv_pos_as_xyz
  1  'x, y, z'
loop_
 _atom_site_type_symbol
 _atom_site_label
 _atom_site_symmetry_multiplicity
 _atom_site_fract_x
 _atom_site_fract_y
 _atom_site_fract_z
 _atom_site_occupancy
  Mg  Mg0  1  0.50000000  0.83232000  0.77241000  1
  Ti  Ti1  1  0.50000000  1.00000000  0.88621000  1
  Mn  Mn2  1  0.49830900  0.49601900  0.55954000  1
  V  V3  1  0.50000000  0.50000000  0.77241000  1
  Zn  Zn4  1  0.50061500  0.99458200  0.66269500  1
  Cr  Cr5  1  0.50000000  0.16768000  0.00000000  1
  Fe  Fe6  1  0.00000000  0.33232000  0.77241000  1
  Co  Co7  1  0.50000000  0.16768000  0.77241000  1
  Cu  Cu8  1  0.50055200  0.67895900  0.66240500  1
  Ni  Ni9  1  0.00065600  0.17217700  0.66634600  1
  Sb  Sb10  1  0.00000000  0.00000000  0.00000000  1
  Sb  Sb11  1  0.00000000  0.00000000  0.77241000  1
  Sb  Sb12  1  0.99775300  0.01313300  0.58443400  1
  Sb  Sb13  1  0.50000000  0.50000000  0.00000000  1
  Sb  Sb14  1  0.00000000  0.50000000  0.88621000  1
  Sb  Sb15  1  0.99984900  0.49734400  0.66147900  1
  Sb  Sb16  1  0.00000000  0.66768000  0.00000000  1
  Sb  Sb17  1  0.50000000  0.66768000  0.88621000  1
  Sb  Sb18  1  0.00000000  0.66768000  0.77241000  1
  Sb  Sb19  1  0.99891700  0.65763500  0.54264200  1
  Sb  Sb20  1  0.00000000  0.16768000  0.88621000  1
  Sb  Sb21  1  0.50166100  0.17661200  0.55183600  1
  Sb  Sb22  1  0.50000000  0.83232000  0.00000000  1
  Sb  Sb23  1  0.00000000  0.83232000  0.88621000  1
  Sb  Sb24  1  0.00019800  0.82465900  0.66179300  1
  Sb  Sb25  1  0.49688400  0.81559500  0.54960900  1
  Sb  Sb26  1  1.00000000  0.33232000  0.00000000  1
  Sb  Sb27  1  0.50000000  0.33232000  0.88621000  1
  Sb  Sb28  1  0.50043200  0.33312100  0.66565700  1
  Sb  Sb29  1  0.00231600  0.33524100  0.54678100  1
  Cl  Cl30  1  0.48285400  0.48529000  0.48244800  1
  O  O31  1  0.00000000  0.82836000  0.95506000  1
  O  O32  1  0.50000000  0.82836000  0.84126000  1
  O  O33  1  0.00019600  0.84474300  0.72934800  1
  O  O34  1  0.50460500  0.83485300  0.61437700  1
  O  O35  1  0.50000000  0.82836000  0.93115000  1
  O  O36  1  0.00000000  0.82836000  0.81736000  1
  O  O37  1  0.49824500  0.83161400  0.70208900  1
  O  O38  1  0.99195300  0.80303000  0.59153700  1
  O  O39  1  0.69747000  0.32836000  0.00000000  1
  O  O40  1  0.19747000  0.32836000  0.88621000  1
  O  O41  1  0.69747000  0.32836000  0.77241000  1
  O  O42  1  0.19518800  0.33925000  0.66594700  1
  O  O43  1  0.68875700  0.35144300  0.55953300  1
  O  O44  1  0.30253000  0.32836000  0.00000000  1
  O  O45  1  0.80253000  0.32836000  0.88621000  1
  O  O46  1  0.30253000  0.32836000  0.77241000  1
  O  O47  1  0.80586100  0.33928600  0.66651300  1
  O  O48  1  0.31122900  0.35171300  0.56255000  1
  O  O49  1  0.69747000  0.67164000  0.00000000  1
  O  O50  1  0.19747000  0.67164000  0.88621000  1
  O  O51  1  0.69747000  0.67164000  0.77241000  1
  O  O52  1  0.19233500  0.66383600  0.66315900  1
  O  O53  1  0.68913700  0.64277700  0.55515600  1
  O  O54  1  0.30253000  0.67164000  0.00000000  1
  O  O55  1  0.80253000  0.67164000  0.88621000  1
  O  O56  1  0.30253000  0.67164000  0.77241000  1
  O  O57  1  0.80810800  0.66420900  0.66408700  1
  O  O58  1  0.30754400  0.64476500  0.55825000  1
  O  O59  1  0.00000000  0.17164000  0.95506000  1
  O  O60  1  0.50000000  0.17164000  0.84126000  1
  O  O61  1  0.00021600  0.15531300  0.72933600  1
  O  O62  1  0.50337400  0.17170800  0.62096200  1
  O  O63  1  0.50000000  0.17164000  0.93115000  1
  O  O64  1  0.00000000  0.17164000  0.81736000  1
  O  O65  1  0.50011200  0.16975200  0.70888900  1
  O  O66  1  0.99937600  0.21110100  0.60033500  1
  O  O67  1  0.00000000  0.50000000  0.95668000  1
  O  O68  1  0.50000000  0.50000000  0.84289000  1
  O  O69  1  0.00049200  0.50002000  0.72830400  1
  O  O70  1  0.50415200  0.50295300  0.62495700  1
  O  O71  1  0.50000000  0.50000000  0.92952000  1
  O  O72  1  0.00000000  0.50000000  0.81573000  1
  O  O73  1  0.49984400  0.49666100  0.71312400  1
  O  O74  1  0.99674600  0.50172000  0.59083100  1
  O  O75  1  0.69034000  0.00000000  0.00000000  1
  O  O76  1  0.19034000  1.00000000  0.88621000  1
  O  O77  1  0.69034000  0.00000000  0.77241000  1
  O  O78  1  0.17993400  0.98904000  0.64583100  1
  O  O79  1  0.76402000  0.02599300  0.54630600  1
  O  O80  1  0.30966000  1.00000000  0.00000000  1
  O  O81  1  0.80966000  0.00000000  0.88621000  1
  O  O82  1  0.30966000  1.00000000  0.77241000  1
  O  O83  1  0.82140900  0.99108100  0.64686900  1
  O  O84  1  0.23176200  0.01808800  0.54635300  1
