# generated using pymatgen
data_MgTiMnVZnCrFeCoCuNiSb20ClO54
_symmetry_space_group_name_H-M   'P 1'
_cell_length_a   6.60879600
_cell_length_b   9.66127600
_cell_length_c   29.29247000
_cell_angle_alpha   89.65036400
_cell_angle_beta   89.91869000
_cell_angle_gamma   89.86971400
_symmetry_Int_Tables_number   1
_chemical_formula_structural   MgTiMnVZnCrFeCoCuNiSb20ClO54
_chemical_formula_sum
'Mg1 Ti1 Mn1 V1 Zn1 Cr1 Fe1 Co1 Cu1 Ni1 Sb20 Cl1 O54'
_cell_volume   1870.26519277
_cell_formula_units_Z   1
loop_
 _symmetry_equiv_pos_site_id
 _symmetry_equiv_pos_as_xyz
  1  'x, y, z'
loop_
 _atom_site_type_symbol
 _atom_site_label
 _atom_site_symmetry_multiplicity
 _atom_site_fract_x
 _atom_site_fract_y
 _atom_site_fract_z
 _atom_site_occupancy
  Mg  Mg0  1  0.51350700  0.54080900  0.45461800  1
  Ti  Ti1  1  1.00000000  0.66768000  0.00000000  1
  Mn  Mn2  1  0.50000000  0.83232000  1.00000000  1
  V  V3  1  0.49792500  0.65192600  0.33924600  1
  Zn  Zn4  1  1.00000000  0.50000000  0.11379000  1
  Cr  Cr5  1  0.99719500  0.37333100  0.43335900  1
  Fe  Fe6  1  0.50393000  0.84434900  0.45085700  1
  Co  Co7  1  0.00000000  0.33232000  0.00000000  1
  Cu  Cu8  1  0.50000000  0.50000000  0.22759000  1
  Ni  Ni9  1  0.50000000  0.16768000  0.22759000  1
  Sb  Sb10  1  0.00000000  0.00000000  0.00000000  1
  Sb  Sb11  1  0.50000000  0.00000000  0.11379000  1
  Sb  Sb12  1  0.00000000  0.00000000  0.22759000  1
  Sb  Sb13  1  0.49864100  0.99477800  0.34016500  1
  Sb  Sb14  1  0.00042200  0.03527200  0.46281700  1
  Sb  Sb15  1  0.50000000  0.50000000  1.00000000  1
  Sb  Sb16  1  0.00019900  0.49639500  0.34298100  1
  Sb  Sb17  1  0.50000000  0.33232000  0.11379000  1
  Sb  Sb18  1  0.00000000  0.33232000  0.22759000  1
  Sb  Sb19  1  0.49994300  0.32926700  0.34167700  1
  Sb  Sb20  1  0.00000000  0.83232000  0.11379000  1
  Sb  Sb21  1  0.50000000  0.83232000  0.22759000  1
  Sb  Sb22  1  0.99753500  0.81785200  0.35161200  1
  Sb  Sb23  1  0.50000000  0.16768000  1.00000000  1
  Sb  Sb24  1  0.00000000  0.16768000  0.11379000  1
  Sb  Sb25  1  0.99787800  0.15836800  0.34043000  1
  Sb  Sb26  1  0.49946200  0.17457800  0.45814200  1
  Sb  Sb27  1  0.50000000  0.66768000  0.11379000  1
  Sb  Sb28  1  0.00000000  0.66768000  0.22759000  1
  Sb  Sb29  1  0.00751400  0.70930400  0.47929900  1
  Cl  Cl30  1  0.48023000  0.43063800  0.52520200  1
  O  O31  1  0.00000000  0.17164000  0.04494000  1
  O  O32  1  0.50000000  0.17164000  0.15874000  1
  O  O33  1  0.00019600  0.15525700  0.27065200  1
  O  O34  1  0.50044100  0.14893900  0.38731500  1
  O  O35  1  0.50000000  0.17164000  0.06885000  1
  O  O36  1  0.00000000  0.17164000  0.18264000  1
  O  O37  1  0.49962200  0.15722200  0.29810300  1
  O  O38  1  0.98613200  0.16412200  0.40797700  1
  O  O39  1  0.69747000  0.67164000  0.00000000  1
  O  O40  1  0.19747000  0.67164000  0.11379000  1
  O  O41  1  0.69747000  0.67164000  0.22759000  1
  O  O42  1  0.20994400  0.66362700  0.33284300  1
  O  O43  1  0.69150900  0.71127700  0.46255400  1
  O  O44  1  0.30253000  0.67164000  1.00000000  1
  O  O45  1  0.80253000  0.67164000  0.11379000  1
  O  O46  1  0.30253000  0.67164000  0.22759000  1
  O  O47  1  0.78711300  0.66098700  0.33354200  1
  O  O48  1  0.32141900  0.70984100  0.46211300  1
  O  O49  1  0.69747000  0.32836000  0.00000000  1
  O  O50  1  0.19747000  0.32836000  0.11379000  1
  O  O51  1  0.69747000  0.32836000  0.22759000  1
  O  O52  1  0.18806000  0.31193800  0.33217700  1
  O  O53  1  0.73951100  0.35123300  0.43973100  1
  O  O54  1  0.30253000  0.32836000  1.00000000  1
  O  O55  1  0.80253000  0.32836000  0.11379000  1
  O  O56  1  0.30253000  0.32836000  0.22759000  1
  O  O57  1  0.81173700  0.31433300  0.33064900  1
  O  O58  1  0.24815300  0.33264000  0.43989000  1
  O  O59  1  1.00000000  0.82836000  0.04494000  1
  O  O60  1  0.50000000  0.82836000  0.15874000  1
  O  O61  1  0.00021600  0.84468700  0.27066400  1
  O  O62  1  0.50044700  0.83103600  0.38093300  1
  O  O63  1  0.50000000  0.82836000  0.06885000  1
  O  O64  1  0.00000000  0.82836000  0.18264000  1
  O  O65  1  0.50001000  0.83442500  0.29576200  1
  O  O66  1  0.00481200  0.85589100  0.42927300  1
  O  O67  1  1.00000000  0.50000000  0.04332000  1
  O  O68  1  0.50000000  0.50000000  0.15711000  1
  O  O69  1  0.00049200  0.49998000  0.27169600  1
  O  O70  1  0.49479900  0.54598300  0.38584500  1
  O  O71  1  0.50000000  0.50000000  0.07048000  1
  O  O72  1  1.00000000  0.50000000  0.18427000  1
  O  O73  1  0.49890500  0.51689300  0.29885800  1
  O  O74  1  0.00680700  0.55780900  0.43481300  1
  O  O75  1  0.69034000  1.00000000  0.00000000  1
  O  O76  1  0.19034000  0.00000000  0.11379000  1
  O  O77  1  0.69034000  1.00000000  0.22759000  1
  O  O78  1  0.19475500  0.00288100  0.33988700  1
  O  O79  1  0.68723100  0.99195200  0.45666300  1
  O  O80  1  0.30966000  0.00000000  1.00000000  1
  O  O81  1  0.80966000  1.00000000  0.11379000  1
  O  O82  1  0.30966000  0.00000000  0.22759000  1
  O  O83  1  0.80285100  0.00322100  0.33853500  1
  O  O84  1  0.31561600  0.99329000  0.45651900  1
