# generated using pymatgen
data_MgTiMnVZnCrFeCoCuNiSb20ClO54
_symmetry_space_group_name_H-M   'P 1'
_cell_length_a   6.67606322
_cell_length_b   9.49736600
_cell_length_c   28.97258885
_cell_angle_alpha   89.99686271
_cell_angle_beta   89.97162968
_cell_angle_gamma   89.99911451
_symmetry_Int_Tables_number   1
_chemical_formula_structural   MgTiMnVZnCrFeCoCuNiSb20ClO54
_chemical_formula_sum
'Mg1 Ti1 Mn1 V1 Zn1 Cr1 Fe1 Co1 Cu1 Ni1 Sb20 Cl1 O54'
_cell_volume   1837.00722653
_cell_formula_units_Z   1
loop_
 _symmetry_equiv_pos_site_id
 _symmetry_equiv_pos_as_xyz
  1  'x, y, z'
loop_
 _atom_site_type_symbol
 _atom_site_label
 _atom_site_symmetry_multiplicity
 _atom_site_fract_x
 _atom_site_fract_y
 _atom_site_fract_z
 _atom_site_occupancy
  Sb  Sb0  1  0.00000000  0.00000000  0.00000000  1
  Ni  Ni1  1  0.50000000  0.00000000  0.11379000  1
  Sb  Sb2  1  0.00000000  0.00000000  0.22759000  1
  Sb  Sb3  1  0.49953500  0.00012600  0.34400400  1
  V  V4  1  0.00278200  0.00014100  0.43440600  1
  Sb  Sb5  1  0.50000000  0.50000000  0.00000000  1
  Sb  Sb6  1  1.00000000  0.50000000  0.11379000  1
  Fe  Fe7  1  0.50000000  0.50000000  0.22759000  1
  Sb  Sb8  1  0.00014300  0.50012800  0.34293200  1
  Ti  Ti9  1  0.50114700  0.50040200  0.44919800  1
  Zn  Zn10  1  0.00000000  0.66768000  1.00000000  1
  Mg  Mg11  1  0.50000000  0.66768000  0.11379000  1
  Sb  Sb12  1  0.00000000  0.66768000  0.22759000  1
  Sb  Sb13  1  0.49964700  0.66927600  0.34201000  1
  Sb  Sb14  1  0.99951400  0.66124400  0.45953600  1
  Sb  Sb15  1  0.50000000  0.16768000  1.00000000  1
  Cu  Cu16  1  1.00000000  0.16768000  0.11379000  1
  Sb  Sb17  1  0.50000000  0.16768000  0.22759000  1
  Sb  Sb18  1  0.99948500  0.17090500  0.33985500  1
  Sb  Sb19  1  0.50115100  0.18367900  0.45949200  1
  Sb  Sb20  1  0.50000000  0.83232000  1.00000000  1
  Sb  Sb21  1  0.00000000  0.83232000  0.11379000  1
  Cr  Cr22  1  0.50000000  0.83232000  0.22759000  1
  Sb  Sb23  1  0.99954900  0.82949500  0.33984000  1
  Co  Co24  1  0.50105600  0.81659100  0.45947300  1
  Sb  Sb25  1  1.00000000  0.33232000  1.00000000  1
  Sb  Sb26  1  0.50000000  0.33232000  0.11379000  1
  Sb  Sb27  1  1.00000000  0.33232000  0.22759000  1
  Sb  Sb28  1  0.49954500  0.33098700  0.34191100  1
  Mn  Mn29  1  0.99961200  0.33851600  0.45973600  1
  O  O30  1  0.00000000  0.82836000  0.04494000  1
  O  O31  1  0.50000000  0.82836000  0.15874000  1
  O  O32  1  0.99980400  0.84474300  0.27065200  1
  O  O33  1  0.49871400  0.83761400  0.38737400  1
  O  O34  1  0.50000000  0.82836000  0.06885000  1
  O  O35  1  0.00000000  0.82836000  0.18264000  1
  O  O36  1  0.50020200  0.83905000  0.29799300  1
  O  O37  1  0.00154500  0.81161500  0.40948100  1
  O  O38  1  0.30253000  0.32836000  1.00000000  1
  O  O39  1  0.80253000  0.32836000  0.11379000  1
  O  O40  1  0.30253000  0.32836000  0.22759000  1
  O  O41  1  0.80289300  0.32709000  0.33824000  1
  O  O42  1  0.31279000  0.34747900  0.44778500  1
  O  O43  1  0.69747000  0.32836000  1.00000000  1
  O  O44  1  0.19747000  0.32836000  0.11379000  1
  O  O45  1  0.69747000  0.32836000  0.22759000  1
  O  O46  1  0.19633900  0.32688100  0.33786400  1
  O  O47  1  0.68833300  0.34761500  0.44592700  1
  O  O48  1  0.30253000  0.67164000  1.00000000  1
  O  O49  1  0.80253000  0.67164000  0.11379000  1
  O  O50  1  0.30253000  0.67164000  0.22759000  1
  O  O51  1  0.80298700  0.67322200  0.33824300  1
  O  O52  1  0.31268500  0.65316600  0.44722800  1
  O  O53  1  0.69747000  0.67164000  1.00000000  1
  O  O54  1  0.19747000  0.67164000  0.11379000  1
  O  O55  1  0.69747000  0.67164000  0.22759000  1
  O  O56  1  0.19637200  0.67340300  0.33790000  1
  O  O57  1  0.68837600  0.65299900  0.44538500  1
  O  O58  1  1.00000000  0.17164000  0.04494000  1
  O  O59  1  0.50000000  0.17164000  0.15874000  1
  O  O60  1  0.99978400  0.15531300  0.27066400  1
  O  O61  1  0.49853500  0.16329200  0.38742300  1
  O  O62  1  0.50000000  0.17164000  0.06885000  1
  O  O63  1  1.00000000  0.17164000  0.18264000  1
  O  O64  1  0.50013500  0.16096700  0.29802400  1
  O  O65  1  0.00171000  0.18872800  0.40949500  1
  O  O66  1  1.00000000  0.50000000  0.04332000  1
  O  O67  1  0.50000000  0.50000000  0.15711000  1
  O  O68  1  0.99950800  0.50002000  0.27169600  1
  O  O69  1  0.49607000  0.49989900  0.38487300  1
  O  O70  1  0.50000000  0.50000000  0.07048000  1
  O  O71  1  1.00000000  0.50000000  0.18427000  1
  O  O72  1  0.50013200  0.50013100  0.29800700  1
  O  O73  1  0.00226000  0.49971800  0.41479700  1
  O  O74  1  0.30966000  1.00000000  1.00000000  1
  O  O75  1  0.80966000  0.00000000  0.11379000  1
  O  O76  1  0.30966000  1.00000000  0.22759000  1
  O  O77  1  0.81230600  0.00018500  0.34873500  1
  O  O78  1  0.22454800  0.99983700  0.46685500  1
  O  O79  1  0.69034000  0.00000000  0.00000000  1
  O  O80  1  0.19034000  1.00000000  0.11379000  1
  O  O81  1  0.69034000  0.00000000  0.22759000  1
  O  O82  1  0.18673900  0.00020600  0.34852800  1
  O  O83  1  0.78450100  0.00031300  0.46769100  1
  Cl  Cl84  1  0.50899700  0.50203200  0.52406100  1
