# generated using pymatgen
data_MgTiMnVZnCrFeCoCuNiSb20ClO54
_symmetry_space_group_name_H-M   'P 1'
_cell_length_a   6.62124300
_cell_length_b   9.62687800
_cell_length_c   28.76404700
_cell_angle_alpha   89.92403100
_cell_angle_beta   89.96086100
_cell_angle_gamma   89.98556500
_symmetry_Int_Tables_number   1
_chemical_formula_structural   MgTiMnVZnCrFeCoCuNiSb20ClO54
_chemical_formula_sum
'Mg1 Ti1 Mn1 V1 Zn1 Cr1 Fe1 Co1 Cu1 Ni1 Sb20 Cl1 O54'
_cell_volume   1833.47286911
_cell_formula_units_Z   1
loop_
 _symmetry_equiv_pos_site_id
 _symmetry_equiv_pos_as_xyz
  1  'x, y, z'
loop_
 _atom_site_type_symbol
 _atom_site_label
 _atom_site_symmetry_multiplicity
 _atom_site_fract_x
 _atom_site_fract_y
 _atom_site_fract_z
 _atom_site_occupancy
  Mg  Mg0  1  0.49880775  0.18516237  0.54369132  1
  Ti  Ti1  1  0.00000000  0.83232000  0.88621000  1
  Mn  Mn2  1  1.00000000  0.33232000  0.77241000  1
  V  V3  1  0.00034637  0.82599052  0.65440891  1
  Zn  Zn4  1  0.99965827  0.00501729  0.54945822  1
  Cr  Cr5  1  0.50000000  0.00000000  0.88621000  1
  Fe  Fe6  1  0.00000000  0.00000000  0.00000000  1
  Co  Co7  1  0.50163183  0.49274739  0.54638433  1
  Cu  Cu8  1  0.50000000  0.83232000  0.77241000  1
  Ni  Ni9  1  0.50000000  0.66768000  0.88621000  1
  Sb  Sb10  1  0.00000000  0.00000000  0.77241000  1
  Sb  Sb11  1  0.50063527  0.99431680  0.65812785  1
  Sb  Sb12  1  0.50000000  0.50000000  0.00000000  1
  Sb  Sb13  1  0.00000000  0.50000000  0.88621000  1
  Sb  Sb14  1  0.50000000  0.50000000  0.77241000  1
  Sb  Sb15  1  0.01333104  0.50461212  0.65757700  1
  Sb  Sb16  1  1.00000000  0.33232000  0.00000000  1
  Sb  Sb17  1  0.50000000  0.33232000  0.88621000  1
  Sb  Sb18  1  0.50319315  0.32727003  0.65880169  1
  Sb  Sb19  1  0.00173109  0.31668689  0.53607548  1
  Sb  Sb20  1  0.50000000  0.83232000  0.00000000  1
  Sb  Sb21  1  0.50363175  0.87248895  0.52737135  1
  Sb  Sb22  1  0.50000000  0.16768000  0.00000000  1
  Sb  Sb23  1  1.00000000  0.16768000  0.88621000  1
  Sb  Sb24  1  0.50000000  0.16768000  0.77241000  1
  Sb  Sb25  1  0.00115051  0.15810319  0.65873469  1
  Sb  Sb26  1  0.00000000  0.66768000  0.00000000  1
  Sb  Sb27  1  0.00000000  0.66768000  0.77241000  1
  Sb  Sb28  1  0.50297034  0.67544475  0.62683113  1
  Sb  Sb29  1  0.00295480  0.66417584  0.54544480  1
  Cl  Cl30  1  0.52365752  0.55454263  0.47437368  1
  O  O31  1  1.00000000  0.17164000  0.95506000  1
  O  O32  1  0.50000000  0.17164000  0.84126000  1
  O  O33  1  0.99980400  0.15525700  0.72934800  1
  O  O34  1  0.50056554  0.16314081  0.61631124  1
  O  O35  1  0.50000000  0.17164000  0.93115000  1
  O  O36  1  1.00000000  0.17164000  0.81736000  1
  O  O37  1  0.50712481  0.16284918  0.70324292  1
  O  O38  1  0.00910008  0.17570064  0.59059738  1
  O  O39  1  0.30253000  0.67164000  0.00000000  1
  O  O40  1  0.80253000  0.67164000  0.88621000  1
  O  O41  1  0.30253000  0.67164000  0.77241000  1
  O  O42  1  0.81908690  0.69660291  0.66025732  1
  O  O43  1  0.31611607  0.65835895  0.56330126  1
  O  O44  1  0.69747000  0.67164000  0.00000000  1
  O  O45  1  0.19747000  0.67164000  0.88621000  1
  O  O46  1  0.69747000  0.67164000  0.77241000  1
  O  O47  1  0.19192029  0.70348623  0.65935948  1
  O  O48  1  0.68777543  0.64498621  0.56626037  1
  O  O49  1  0.30253000  0.32836000  0.00000000  1
  O  O50  1  0.80253000  0.32836000  0.88621000  1
  O  O51  1  0.30253000  0.32836000  0.77241000  1
  O  O52  1  0.80892401  0.32337535  0.66195158  1
  O  O53  1  0.31115680  0.34977967  0.53335534  1
  O  O54  1  0.69747000  0.32836000  0.00000000  1
  O  O55  1  0.19747000  0.32836000  0.88621000  1
  O  O56  1  0.69747000  0.32836000  0.77241000  1
  O  O57  1  0.19735326  0.31671457  0.66599148  1
  O  O58  1  0.69053494  0.34860423  0.54041896  1
  O  O59  1  0.00000000  0.82836000  0.95506000  1
  O  O60  1  0.50000000  0.82836000  0.84126000  1
  O  O61  1  0.99978400  0.84468700  0.72933600  1
  O  O62  1  0.50606687  0.87769466  0.60155851  1
  O  O63  1  0.50000000  0.82836000  0.93115000  1
  O  O64  1  0.00000000  0.82836000  0.81736000  1
  O  O65  1  0.50345257  0.83756772  0.69884139  1
  O  O66  1  0.99687939  0.83229022  0.59090761  1
  O  O67  1  0.00000000  0.50000000  0.95668000  1
  O  O68  1  0.50000000  0.50000000  0.84289000  1
  O  O69  1  0.99950800  0.49998000  0.72830400  1
  O  O70  1  0.46225893  0.46024390  0.60961170  1
  O  O71  1  0.50000000  0.50000000  0.92952000  1
  O  O72  1  0.00000000  0.50000000  0.81573000  1
  O  O73  1  0.50197965  0.48807528  0.70185610  1
  O  O74  1  0.00964974  0.48270695  0.58061338  1
  O  O75  1  0.30966000  0.00000000  0.00000000  1
  O  O76  1  0.80966000  0.00000000  0.88621000  1
  O  O77  1  0.30966000  0.00000000  0.77241000  1
  O  O78  1  0.81016742  0.99794970  0.65829370  1
  O  O79  1  0.28804576  0.01942711  0.53111966  1
  O  O80  1  0.69034000  0.00000000  0.00000000  1
  O  O81  1  0.19034000  0.00000000  0.88621000  1
  O  O82  1  0.69034000  0.00000000  0.77241000  1
  O  O83  1  0.19207109  0.99773535  0.65875334  1
  O  O84  1  0.71329374  0.02547988  0.53110780  1
